<?xml version="1.0" encoding="UTF-8"?>

<!-- generated on 08/10/24 22:56:07 by Eclipse SUMO netconvert Version 1.8.0
<configuration xmlns:xsi="http://www.w3.org/2001/XMLSchema-instance" xsi:noNamespaceSchemaLocation="http://sumo.dlr.de/xsd/netconvertConfiguration.xsd">

    <input>
        <osm-files value="map4.osm"/>
    </input>

    <projection>
        <proj.utm value="true"/>
    </projection>

    <report>
        <aggregate-warnings value="5"/>
    </report>

</configuration>
-->

<net version="1.6" junctionCornerDetail="5" limitTurnSpeed="5.50" xmlns:xsi="http://www.w3.org/2001/XMLSchema-instance" xsi:noNamespaceSchemaLocation="http://sumo.dlr.de/xsd/net_file.xsd">

    <location netOffset="-528677.71,-4057733.59" convBoundary="0.00,0.00,2618.21,1428.52" origBoundary="51.320916,36.664763,51.350231,36.677626" projParameter="+proj=utm +zone=39 +ellps=WGS84 +datum=WGS84 +units=m +no_defs"/>

    <type id="highway.bridleway" priority="1" numLanes="1" speed="2.78" allow="pedestrian" oneway="1" width="2.00"/>
    <type id="highway.bus_guideway" priority="1" numLanes="1" speed="27.78" allow="bus" oneway="1"/>
    <type id="highway.cycleway" priority="1" numLanes="1" speed="8.33" allow="bicycle" oneway="0" width="1.00"/>
    <type id="highway.footway" priority="1" numLanes="1" speed="2.78" allow="pedestrian" oneway="1" width="2.00"/>
    <type id="highway.ford" priority="1" numLanes="1" speed="2.78" allow="army" oneway="0"/>
    <type id="highway.living_street" priority="2" numLanes="1" speed="2.78" disallow="tram rail_urban rail rail_electric rail_fast ship" oneway="0"/>
    <type id="highway.motorway" priority="14" numLanes="2" speed="39.44" allow="private emergency authority army vip passenger hov taxi bus coach delivery truck trailer motorcycle evehicle custom1 custom2" oneway="1"/>
    <type id="highway.motorway_link" priority="9" numLanes="1" speed="22.22" allow="private emergency authority army vip passenger hov taxi bus coach delivery truck trailer motorcycle evehicle custom1 custom2" oneway="1"/>
    <type id="highway.path" priority="1" numLanes="1" speed="2.78" allow="pedestrian bicycle" oneway="0" width="2.00"/>
    <type id="highway.pedestrian" priority="1" numLanes="1" speed="2.78" allow="pedestrian" oneway="1" width="2.00"/>
    <type id="highway.primary" priority="12" numLanes="2" speed="27.78" disallow="tram rail_urban rail rail_electric rail_fast ship" oneway="0"/>
    <type id="highway.primary_link" priority="7" numLanes="1" speed="22.22" disallow="tram rail_urban rail rail_electric rail_fast ship" oneway="0"/>
    <type id="highway.raceway" priority="15" numLanes="2" speed="83.33" allow="vip" oneway="0"/>
    <type id="highway.residential" priority="3" numLanes="1" speed="13.89" disallow="tram rail_urban rail rail_electric rail_fast ship" oneway="0"/>
    <type id="highway.secondary" priority="11" numLanes="1" speed="27.78" disallow="tram rail_urban rail rail_electric rail_fast ship" oneway="0"/>
    <type id="highway.secondary_link" priority="6" numLanes="1" speed="22.22" disallow="tram rail_urban rail rail_electric rail_fast ship" oneway="0"/>
    <type id="highway.service" priority="1" numLanes="1" speed="5.56" allow="pedestrian delivery bicycle" oneway="0"/>
    <type id="highway.stairs" priority="1" numLanes="1" speed="1.39" allow="pedestrian" oneway="1" width="2.00"/>
    <type id="highway.step" priority="1" numLanes="1" speed="1.39" allow="pedestrian" oneway="1" width="2.00"/>
    <type id="highway.steps" priority="1" numLanes="1" speed="1.39" allow="pedestrian" oneway="1" width="2.00"/>
    <type id="highway.tertiary" priority="10" numLanes="1" speed="22.22" disallow="tram rail_urban rail rail_electric rail_fast ship" oneway="0"/>
    <type id="highway.tertiary_link" priority="5" numLanes="1" speed="22.22" disallow="tram rail_urban rail rail_electric rail_fast ship" oneway="0"/>
    <type id="highway.track" priority="1" numLanes="1" speed="5.56" allow="pedestrian motorcycle moped bicycle" oneway="0"/>
    <type id="highway.trunk" priority="13" numLanes="2" speed="27.78" disallow="pedestrian bicycle tram rail_urban rail rail_electric rail_fast ship" oneway="0"/>
    <type id="highway.trunk_link" priority="8" numLanes="1" speed="22.22" disallow="pedestrian bicycle tram rail_urban rail rail_electric rail_fast ship" oneway="0"/>
    <type id="highway.unclassified" priority="4" numLanes="1" speed="13.89" disallow="tram rail_urban rail rail_electric rail_fast ship" oneway="0"/>
    <type id="highway.unsurfaced" priority="1" numLanes="1" speed="8.33" disallow="tram rail_urban rail rail_electric rail_fast ship" oneway="0"/>
    <type id="railway.highspeed" priority="21" numLanes="1" speed="69.44" allow="rail_fast" oneway="1"/>
    <type id="railway.light_rail" priority="19" numLanes="1" speed="27.78" allow="rail_urban" oneway="1"/>
    <type id="railway.preserved" priority="16" numLanes="1" speed="27.78" allow="rail" oneway="1"/>
    <type id="railway.rail" priority="20" numLanes="1" speed="44.44" allow="rail" oneway="1"/>
    <type id="railway.subway" priority="18" numLanes="1" speed="27.78" allow="rail_urban" oneway="1"/>
    <type id="railway.tram" priority="17" numLanes="1" speed="13.89" allow="tram" oneway="1"/>

    <edge id=":3439498497_0" function="internal">
        <lane id=":3439498497_0_0" index="0" disallow="tram rail_urban rail rail_electric rail_fast ship" speed="3.65" length="4.67" shape="2619.80,720.90 2619.15,722.19 2618.41,722.69 2617.56,722.38 2616.62,721.29"/>
    </edge>
    <edge id=":3439498527_0" function="internal">
        <lane id=":3439498527_0_0" index="0" disallow="tram rail_urban rail rail_electric rail_fast ship" speed="8.33" length="12.83" shape="1447.09,208.72 1443.68,208.84 1440.69,209.10 1437.72,209.55 1434.38,210.25"/>
    </edge>
    <edge id=":3439498527_1" function="internal">
        <lane id=":3439498527_1_0" index="0" disallow="tram rail_urban rail rail_electric rail_fast ship" speed="8.02" length="5.45" shape="1447.09,208.72 1443.47,208.27 1441.89,207.40"/>
    </edge>
    <edge id=":3439498527_2" function="internal">
        <lane id=":3439498527_2_0" index="0" disallow="tram rail_urban rail rail_electric rail_fast ship" speed="3.65" length="2.34" shape="1447.09,208.72 1445.87,207.94 1445.46,207.15"/>
    </edge>
    <edge id=":3439498527_9" function="internal">
        <lane id=":3439498527_9_0" index="0" disallow="tram rail_urban rail rail_electric rail_fast ship" speed="8.02" length="7.99" shape="1441.89,207.40 1440.77,206.79 1439.01,204.28 1438.17,200.73"/>
    </edge>
    <edge id=":3439498527_10" function="internal">
        <lane id=":3439498527_10_0" index="0" disallow="tram rail_urban rail rail_electric rail_fast ship" speed="3.65" length="2.34" shape="1445.46,207.15 1445.85,206.34 1447.03,205.52"/>
    </edge>
    <edge id=":3439498527_3" function="internal">
        <lane id=":3439498527_3_0" index="0" disallow="tram rail_urban rail rail_electric rail_fast ship" speed="6.52" length="8.55" shape="1441.36,200.43 1441.89,202.69 1443.01,204.29 1444.73,205.24 1447.03,205.52"/>
    </edge>
    <edge id=":3439498527_4" function="internal">
        <lane id=":3439498527_4_0" index="0" disallow="tram rail_urban rail rail_electric rail_fast ship" speed="8.18" length="13.36" shape="1441.36,200.43 1441.20,204.07 1439.98,206.91 1437.71,208.97 1434.38,210.25"/>
    </edge>
    <edge id=":3439498527_5" function="internal">
        <lane id=":3439498527_5_0" index="0" disallow="tram rail_urban rail rail_electric rail_fast ship" speed="3.65" length="4.67" shape="1441.36,200.43 1440.67,201.70 1439.91,202.17 1439.08,201.85 1438.17,200.73"/>
    </edge>
    <edge id=":3439498527_6" function="internal">
        <lane id=":3439498527_6_0" index="0" disallow="tram rail_urban rail rail_electric rail_fast ship" speed="6.71" length="8.68" shape="1433.67,207.13 1435.82,206.30 1437.29,204.96 1438.07,203.10 1438.17,200.73"/>
    </edge>
    <edge id=":3439498527_7" function="internal">
        <lane id=":3439498527_7_0" index="0" disallow="tram rail_urban rail rail_electric rail_fast ship" speed="8.33" length="13.48" shape="1433.67,207.13 1437.11,206.42 1440.30,205.94 1443.52,205.65 1447.03,205.52"/>
    </edge>
    <edge id=":3439498527_8" function="internal">
        <lane id=":3439498527_8_0" index="0" disallow="tram rail_urban rail rail_electric rail_fast ship" speed="3.65" length="2.34" shape="1433.67,207.13 1435.02,207.64 1435.59,208.33"/>
    </edge>
    <edge id=":3439498527_11" function="internal">
        <lane id=":3439498527_11_0" index="0" disallow="tram rail_urban rail rail_electric rail_fast ship" speed="3.65" length="2.34" shape="1435.59,208.33 1435.37,209.20 1434.38,210.25"/>
    </edge>
    <edge id=":3439498528_0" function="internal">
        <lane id=":3439498528_0_0" index="0" disallow="tram rail_urban rail rail_electric rail_fast ship" speed="7.75" length="11.28" shape="1394.41,226.29 1392.57,223.76 1390.39,222.22 1387.87,221.68 1385.00,222.14"/>
    </edge>
    <edge id=":3439498528_1" function="internal">
        <lane id=":3439498528_1_0" index="0" disallow="tram rail_urban rail rail_electric rail_fast ship" speed="13.89" length="16.00" shape="1394.41,226.29 1387.09,212.06"/>
    </edge>
    <edge id=":3439498528_2" function="internal">
        <lane id=":3439498528_2_0" index="0" disallow="tram rail_urban rail rail_electric rail_fast ship" speed="7.60" length="15.37" shape="1394.41,226.29 1392.86,222.18 1393.20,218.91 1395.43,216.49 1399.53,214.91"/>
    </edge>
    <edge id=":3439498528_3" function="internal">
        <lane id=":3439498528_3_0" index="0" disallow="tram rail_urban rail rail_electric rail_fast ship" speed="3.65" length="4.67" shape="1394.41,226.29 1394.53,224.86 1395.04,224.12 1395.94,224.09 1397.21,224.76"/>
    </edge>
    <edge id=":3439498528_4" function="internal">
        <lane id=":3439498528_4_0" index="0" disallow="tram rail_urban rail rail_electric rail_fast ship" speed="5.99" length="9.08" shape="1400.24,218.03 1397.82,218.96 1396.50,220.39 1396.30,222.33 1397.21,224.76"/>
    </edge>
    <edge id=":3439498528_5" function="internal">
        <lane id=":3439498528_5_0" index="0" disallow="tram rail_urban rail rail_electric rail_fast ship" speed="8.33" length="15.78" shape="1400.24,218.03 1385.00,222.14"/>
    </edge>
    <edge id=":3439498528_6" function="internal">
        <lane id=":3439498528_6_0" index="0" disallow="tram rail_urban rail rail_electric rail_fast ship" speed="9.18" length="6.18" shape="1400.24,218.03 1395.94,218.45 1394.13,218.02"/>
    </edge>
    <edge id=":3439498528_7" function="internal">
        <lane id=":3439498528_7_0" index="0" disallow="tram rail_urban rail rail_electric rail_fast ship" speed="3.65" length="2.34" shape="1400.24,218.03 1398.89,217.52 1398.33,216.83"/>
    </edge>
    <edge id=":3439498528_16" function="internal">
        <lane id=":3439498528_16_0" index="0" disallow="tram rail_urban rail rail_electric rail_fast ship" speed="9.18" length="9.60" shape="1394.13,218.02 1392.32,217.60 1389.37,215.47 1387.09,212.06"/>
    </edge>
    <edge id=":3439498528_17" function="internal">
        <lane id=":3439498528_17_0" index="0" disallow="tram rail_urban rail rail_electric rail_fast ship" speed="3.65" length="2.34" shape="1398.33,216.83 1398.54,215.96 1399.53,214.91"/>
    </edge>
    <edge id=":3439498528_8" function="internal">
        <lane id=":3439498528_8_0" index="0" disallow="tram rail_urban rail rail_electric rail_fast ship" speed="7.89" length="11.42" shape="1389.97,210.68 1391.61,213.11 1393.75,214.63 1396.39,215.23 1399.53,214.91"/>
    </edge>
    <edge id=":3439498528_9" function="internal">
        <lane id=":3439498528_9_0" index="0" disallow="tram rail_urban rail rail_electric rail_fast ship" speed="13.89" length="15.83" shape="1389.97,210.68 1397.21,224.76"/>
    </edge>
    <edge id=":3439498528_10" function="internal">
        <lane id=":3439498528_10_0" index="0" disallow="tram rail_urban rail rail_electric rail_fast ship" speed="7.77" length="14.76" shape="1389.97,210.68 1391.21,214.62 1390.79,217.84 1388.72,220.35 1385.00,222.14"/>
    </edge>
    <edge id=":3439498528_11" function="internal">
        <lane id=":3439498528_11_0" index="0" disallow="tram rail_urban rail rail_electric rail_fast ship" speed="3.65" length="4.67" shape="1389.97,210.68 1389.77,212.10 1389.22,212.81 1388.33,212.80 1387.09,212.06"/>
    </edge>
    <edge id=":3439498528_12" function="internal">
        <lane id=":3439498528_12_0" index="0" disallow="tram rail_urban rail rail_electric rail_fast ship" speed="6.22" length="9.05" shape="1384.04,219.09 1386.32,217.99 1387.59,216.45 1387.85,214.48 1387.09,212.06"/>
    </edge>
    <edge id=":3439498528_13" function="internal">
        <lane id=":3439498528_13_0" index="0" disallow="tram rail_urban rail rail_electric rail_fast ship" speed="8.33" length="16.04" shape="1384.04,219.09 1399.53,214.91"/>
    </edge>
    <edge id=":3439498528_14" function="internal">
        <lane id=":3439498528_14_0" index="0" disallow="tram rail_urban rail rail_electric rail_fast ship" speed="9.06" length="6.73" shape="1384.04,219.09 1388.09,218.43 1390.67,218.96"/>
    </edge>
    <edge id=":3439498528_15" function="internal">
        <lane id=":3439498528_15_0" index="0" disallow="tram rail_urban rail rail_electric rail_fast ship" speed="3.65" length="2.34" shape="1384.04,219.09 1385.43,219.49 1386.05,220.13"/>
    </edge>
    <edge id=":3439498528_18" function="internal">
        <lane id=":3439498528_18_0" index="0" disallow="tram rail_urban rail rail_electric rail_fast ship" speed="9.06" length="9.01" shape="1390.67,218.96 1391.63,219.15 1394.67,221.26 1397.21,224.76"/>
    </edge>
    <edge id=":3439498528_19" function="internal">
        <lane id=":3439498528_19_0" index="0" disallow="tram rail_urban rail rail_electric rail_fast ship" speed="3.65" length="2.34" shape="1386.05,220.13 1385.91,221.02 1385.00,222.14"/>
    </edge>
    <edge id=":3439498531_0" function="internal">
        <lane id=":3439498531_0_0" index="0" disallow="tram rail_urban rail rail_electric rail_fast ship" speed="8.33" length="13.02" shape="1295.39,246.58 1292.00,247.20 1288.96,247.65 1285.91,247.94 1282.48,248.05"/>
    </edge>
    <edge id=":3439498531_1" function="internal">
        <lane id=":3439498531_1_0" index="0" disallow="tram rail_urban rail rail_electric rail_fast ship" speed="7.78" length="6.15" shape="1295.39,246.58 1291.28,246.76 1289.39,245.99"/>
    </edge>
    <edge id=":3439498531_2" function="internal">
        <lane id=":3439498531_2_0" index="0" disallow="tram rail_urban rail rail_electric rail_fast ship" speed="3.65" length="2.34" shape="1295.39,246.58 1294.06,246.02 1293.52,245.30"/>
    </edge>
    <edge id=":3439498531_9" function="internal">
        <lane id=":3439498531_9_0" index="0" disallow="tram rail_urban rail rail_electric rail_fast ship" speed="7.78" length="8.57" shape="1289.39,245.99 1288.27,245.53 1286.37,242.90 1285.56,238.87"/>
    </edge>
    <edge id=":3439498531_10" function="internal">
        <lane id=":3439498531_10_0" index="0" disallow="tram rail_urban rail rail_electric rail_fast ship" speed="3.65" length="2.34" shape="1293.52,245.30 1293.77,244.44 1294.80,243.44"/>
    </edge>
    <edge id=":3439498531_3" function="internal">
        <lane id=":3439498531_3_0" index="0" disallow="tram rail_urban rail rail_electric rail_fast ship" speed="6.24" length="9.05" shape="1288.76,238.69 1289.25,241.17 1290.42,242.79 1292.27,243.54 1294.80,243.44"/>
    </edge>
    <edge id=":3439498531_4" function="internal">
        <lane id=":3439498531_4_0" index="0" disallow="tram rail_urban rail rail_electric rail_fast ship" speed="7.52" length="12.89" shape="1288.76,238.69 1288.55,242.78 1287.44,245.69 1285.41,247.45 1282.48,248.05"/>
    </edge>
    <edge id=":3439498531_5" function="internal">
        <lane id=":3439498531_5_0" index="0" disallow="tram rail_urban rail rail_electric rail_fast ship" speed="3.65" length="4.67" shape="1288.76,238.69 1288.02,239.94 1287.25,240.38 1286.43,240.02 1285.56,238.87"/>
    </edge>
    <edge id=":3439498531_6" function="internal">
        <lane id=":3439498531_6_0" index="0" disallow="tram rail_urban rail rail_electric rail_fast ship" speed="5.93" length="7.59" shape="1282.46,244.85 1283.94,244.47 1284.95,243.35 1285.49,241.48 1285.56,238.87"/>
    </edge>
    <edge id=":3439498531_7" function="internal">
        <lane id=":3439498531_7_0" index="0" disallow="tram rail_urban rail rail_electric rail_fast ship" speed="8.33" length="12.44" shape="1282.46,244.85 1285.81,244.75 1288.66,244.48 1291.50,244.04 1294.80,243.44"/>
    </edge>
    <edge id=":3439498531_8" function="internal">
        <lane id=":3439498531_8_0" index="0" disallow="tram rail_urban rail rail_electric rail_fast ship" speed="3.65" length="2.34" shape="1282.46,244.85 1283.66,245.64 1284.07,246.44"/>
    </edge>
    <edge id=":3439498531_11" function="internal">
        <lane id=":3439498531_11_0" index="0" disallow="tram rail_urban rail rail_electric rail_fast ship" speed="3.65" length="2.34" shape="1284.07,246.44 1283.67,247.24 1282.48,248.05"/>
    </edge>
    <edge id=":3439498535_0" function="internal">
        <lane id=":3439498535_0_0" index="0" disallow="tram rail_urban rail rail_electric rail_fast ship" speed="8.33" length="12.22" shape="1061.47,236.52 1058.18,236.24 1055.42,236.51 1052.72,237.27 1049.59,238.45"/>
    </edge>
    <edge id=":3439498535_1" function="internal">
        <lane id=":3439498535_1_0" index="0" disallow="tram rail_urban rail rail_electric rail_fast ship" speed="11.11" length="4.66" shape="1061.47,236.52 1058.49,235.65 1057.16,234.84"/>
    </edge>
    <edge id=":3439498535_2" function="internal">
        <lane id=":3439498535_2_0" index="0" disallow="tram rail_urban rail rail_electric rail_fast ship" speed="3.65" length="2.19" shape="1061.47,236.52 1060.40,235.54 1060.17,234.83"/>
    </edge>
    <edge id=":3439498535_9" function="internal">
        <lane id=":3439498535_9_0" index="0" disallow="tram rail_urban rail rail_electric rail_fast ship" speed="11.11" length="9.21" shape="1057.16,234.84 1055.73,233.98 1053.18,231.53 1050.84,228.27"/>
    </edge>
    <edge id=":3439498535_10" function="internal">
        <lane id=":3439498535_10_0" index="0" disallow="tram rail_urban rail rail_electric rail_fast ship" speed="3.65" length="2.48" shape="1060.17,234.83 1060.13,234.69 1060.64,233.96 1061.95,233.35"/>
    </edge>
    <edge id=":3439498535_3" function="internal">
        <lane id=":3439498535_3_0" index="0" disallow="tram rail_urban rail rail_electric rail_fast ship" speed="10.23" length="11.09" shape="1053.57,226.60 1055.48,229.29 1057.51,231.31 1059.67,232.66 1061.95,233.35"/>
    </edge>
    <edge id=":3439498535_4" function="internal">
        <lane id=":3439498535_4_0" index="0" disallow="tram rail_urban rail rail_electric rail_fast ship" speed="7.72" length="14.90" shape="1053.57,226.60 1055.22,230.45 1055.11,233.71 1053.24,236.38 1049.59,238.45"/>
    </edge>
    <edge id=":3439498535_5" function="internal">
        <lane id=":3439498535_5_0" index="0" disallow="tram rail_urban rail rail_electric rail_fast ship" speed="3.65" length="4.67" shape="1053.57,226.60 1053.51,228.04 1053.04,228.80 1052.15,228.88 1050.84,228.27"/>
    </edge>
    <edge id=":3439498535_6" function="internal">
        <lane id=":3439498535_6_0" index="0" disallow="tram rail_urban rail rail_electric rail_fast ship" speed="6.16" length="9.05" shape="1048.42,235.47 1050.64,234.21 1051.78,232.59 1051.84,230.61 1050.84,228.27"/>
    </edge>
    <edge id=":3439498535_7" function="internal">
        <lane id=":3439498535_7_0" index="0" disallow="tram rail_urban rail rail_electric rail_fast ship" speed="8.33" length="13.86" shape="1048.42,235.47 1051.81,234.26 1055.08,233.44 1058.41,233.11 1061.95,233.35"/>
    </edge>
    <edge id=":3439498535_8" function="internal">
        <lane id=":3439498535_8_0" index="0" disallow="tram rail_urban rail rail_electric rail_fast ship" speed="3.65" length="2.34" shape="1048.42,235.47 1049.83,235.78 1050.50,236.37"/>
    </edge>
    <edge id=":3439498535_11" function="internal">
        <lane id=":3439498535_11_0" index="0" disallow="tram rail_urban rail rail_electric rail_fast ship" speed="3.65" length="2.34" shape="1050.50,236.37 1050.42,237.27 1049.59,238.45"/>
    </edge>
    <edge id=":3439498545_0" function="internal">
        <lane id=":3439498545_0_0" index="0" disallow="tram rail_urban rail rail_electric rail_fast ship" speed="8.69" length="9.89" shape="776.78,234.95 775.23,232.59 773.45,230.88 771.43,229.79 769.16,229.35"/>
    </edge>
    <edge id=":3439498545_1" function="internal">
        <lane id=":3439498545_1_0" index="0" disallow="tram rail_urban rail rail_electric rail_fast ship" speed="8.01" length="13.85" shape="776.78,234.95 775.49,231.40 775.62,228.25 777.17,225.52 780.15,223.19"/>
    </edge>
    <edge id=":3439498545_2" function="internal">
        <lane id=":3439498545_2_0" index="0" disallow="tram rail_urban rail rail_electric rail_fast ship" speed="3.65" length="4.67" shape="776.78,234.95 776.92,233.51 777.44,232.79 778.33,232.76 779.60,233.44"/>
    </edge>
    <edge id=":3439498545_3" function="internal">
        <lane id=":3439498545_3_0" index="0" disallow="tram rail_urban rail rail_electric rail_fast ship" speed="6.51" length="8.81" shape="781.75,225.96 779.85,227.44 778.86,229.18 778.78,231.19 779.60,233.44"/>
    </edge>
    <edge id=":3439498545_4" function="internal">
        <lane id=":3439498545_4_0" index="0" disallow="tram rail_urban rail rail_electric rail_fast ship" speed="8.33" length="13.24" shape="781.75,225.96 778.65,227.58 775.70,228.69 772.63,229.28 769.16,229.35"/>
    </edge>
    <edge id=":3439498545_5" function="internal">
        <lane id=":3439498545_5_0" index="0" disallow="tram rail_urban rail rail_electric rail_fast ship" speed="3.65" length="2.34" shape="781.75,225.96 780.31,225.87 779.56,225.37"/>
    </edge>
    <edge id=":3439498545_9" function="internal">
        <lane id=":3439498545_9_0" index="0" disallow="tram rail_urban rail rail_electric rail_fast ship" speed="3.65" length="2.34" shape="779.56,225.37 779.51,224.48 780.15,223.19"/>
    </edge>
    <edge id=":3439498545_6" function="internal">
        <lane id=":3439498545_6_0" index="0" disallow="tram rail_urban rail rail_electric rail_fast ship" speed="8.33" length="11.44" shape="769.33,226.15 772.52,226.15 774.99,225.71 777.33,224.74 780.15,223.19"/>
    </edge>
    <edge id=":3439498545_7" function="internal">
        <lane id=":3439498545_7_0" index="0" disallow="tram rail_urban rail rail_electric rail_fast ship" speed="9.95" length="4.67" shape="769.33,226.15 772.44,226.74 773.78,227.43"/>
    </edge>
    <edge id=":3439498545_8" function="internal">
        <lane id=":3439498545_8_0" index="0" disallow="tram rail_urban rail rail_electric rail_fast ship" speed="3.65" length="2.21" shape="769.33,226.15 770.49,227.02 770.80,227.72"/>
    </edge>
    <edge id=":3439498545_10" function="internal">
        <lane id=":3439498545_10_0" index="0" disallow="tram rail_urban rail rail_electric rail_fast ship" speed="9.95" length="8.52" shape="773.78,227.43 775.19,228.15 777.57,230.39 779.60,233.44"/>
    </edge>
    <edge id=":3439498545_11" function="internal">
        <lane id=":3439498545_11_0" index="0" disallow="tram rail_urban rail rail_electric rail_fast ship" speed="3.65" length="2.47" shape="770.80,227.72 770.85,227.84 770.41,228.61 769.16,229.35"/>
    </edge>
    <edge id=":3439498551_0" function="internal">
        <lane id=":3439498551_0_0" index="0" disallow="tram rail_urban rail rail_electric rail_fast ship" speed="8.33" length="10.79" shape="620.47,230.06 617.44,229.24 615.13,228.92 612.91,229.29 610.12,230.57"/>
    </edge>
    <edge id=":3439498551_1" function="internal">
        <lane id=":3439498551_1_0" index="0" disallow="tram rail_urban rail rail_electric rail_fast ship" speed="8.00" length="5.02" shape="620.47,230.06 616.94,228.51 616.13,227.67"/>
    </edge>
    <edge id=":3439498551_2" function="internal">
        <lane id=":3439498551_2_0" index="0" disallow="tram rail_urban rail rail_electric rail_fast ship" speed="3.65" length="2.34" shape="620.47,230.06 619.53,228.96 619.35,228.09"/>
    </edge>
    <edge id=":3439498551_9" function="internal">
        <lane id=":3439498551_9_0" index="0" disallow="tram rail_urban rail rail_electric rail_fast ship" speed="8.00" length="9.05" shape="616.13,227.67 614.74,226.21 613.86,223.15 614.31,219.33"/>
    </edge>
    <edge id=":3439498551_10" function="internal">
        <lane id=":3439498551_10_0" index="0" disallow="tram rail_urban rail rail_electric rail_fast ship" speed="3.65" length="2.34" shape="619.35,228.09 619.95,227.42 621.32,226.97"/>
    </edge>
    <edge id=":3439498551_3" function="internal">
        <lane id=":3439498551_3_0" index="0" disallow="tram rail_urban rail rail_electric rail_fast ship" speed="6.51" length="8.96" shape="617.40,220.14 617.12,222.58 617.68,224.53 619.08,225.99 621.32,226.97"/>
    </edge>
    <edge id=":3439498551_4" function="internal">
        <lane id=":3439498551_4_0" index="0" disallow="tram rail_urban rail rail_electric rail_fast ship" speed="11.11" length="13.07" shape="617.40,220.14 616.20,223.63 614.58,226.52 612.56,228.84 610.12,230.57"/>
    </edge>
    <edge id=":3439498551_5" function="internal">
        <lane id=":3439498551_5_0" index="0" disallow="tram rail_urban rail rail_electric rail_fast ship" speed="3.65" length="4.67" shape="617.40,220.14 616.32,221.10 615.45,221.28 614.78,220.69 614.31,219.33"/>
    </edge>
    <edge id=":3439498551_6" function="internal">
        <lane id=":3439498551_6_0" index="0" disallow="tram rail_urban rail rail_electric rail_fast ship" speed="10.42" length="10.47" shape="608.59,227.76 610.48,226.40 612.06,224.54 613.34,222.18 614.31,219.33"/>
    </edge>
    <edge id=":3439498551_7" function="internal">
        <lane id=":3439498551_7_0" index="0" disallow="tram rail_urban rail rail_electric rail_fast ship" speed="8.33" length="13.13" shape="608.59,227.76 611.75,226.44 614.80,225.97 617.92,226.20 621.32,226.97"/>
    </edge>
    <edge id=":3439498551_8" function="internal">
        <lane id=":3439498551_8_0" index="0" disallow="tram rail_urban rail rail_electric rail_fast ship" speed="3.65" length="2.45" shape="608.59,227.76 610.03,227.89 610.76,228.40 610.76,228.52"/>
    </edge>
    <edge id=":3439498551_11" function="internal">
        <lane id=":3439498551_11_0" index="0" disallow="tram rail_urban rail rail_electric rail_fast ship" speed="3.65" length="2.22" shape="610.76,228.52 610.79,229.29 610.12,230.57"/>
    </edge>
    <edge id=":3439498563_0" function="internal">
        <lane id=":3439498563_0_0" index="0" disallow="tram rail_urban rail rail_electric rail_fast ship" speed="7.90" length="10.44" shape="264.53,418.16 262.38,419.27 260.83,421.03 259.88,423.44 259.55,426.51"/>
    </edge>
    <edge id=":3439498563_1" function="internal">
        <lane id=":3439498563_1_0" index="0" disallow="tram rail_urban rail rail_electric rail_fast ship" speed="8.33" length="14.41" shape="264.53,418.16 261.03,419.21 257.60,420.12 254.14,420.92 250.56,421.66"/>
    </edge>
    <edge id=":3439498563_2" function="internal">
        <lane id=":3439498563_2_0" index="0" disallow="tram rail_urban rail rail_electric rail_fast ship" speed="3.65" length="2.34" shape="264.53,418.16 263.14,417.76 262.52,417.12"/>
    </edge>
    <edge id=":3439498563_9" function="internal">
        <lane id=":3439498563_9_0" index="0" disallow="tram rail_urban rail rail_electric rail_fast ship" speed="3.65" length="2.34" shape="262.52,417.12 262.66,416.24 263.56,415.11"/>
    </edge>
    <edge id=":3439498563_3" function="internal">
        <lane id=":3439498563_3_0" index="0" disallow="tram rail_urban rail rail_electric rail_fast ship" speed="8.33" length="14.05" shape="249.94,418.52 253.47,417.79 256.80,417.02 260.11,416.15 263.56,415.11"/>
    </edge>
    <edge id=":3439498563_4" function="internal">
        <lane id=":3439498563_4_0" index="0" disallow="tram rail_urban rail rail_electric rail_fast ship" speed="7.68" length="5.86" shape="249.94,418.52 254.18,418.30 255.67,418.92"/>
    </edge>
    <edge id=":3439498563_5" function="internal">
        <lane id=":3439498563_5_0" index="0" disallow="tram rail_urban rail rail_electric rail_fast ship" speed="3.65" length="2.34" shape="249.94,418.52 251.27,419.07 251.82,419.78"/>
    </edge>
    <edge id=":3439498563_10" function="internal">
        <lane id=":3439498563_10_0" index="0" disallow="tram rail_urban rail rail_electric rail_fast ship" speed="7.68" length="9.17" shape="255.67,418.92 257.20,419.56 258.99,422.30 259.55,426.51"/>
    </edge>
    <edge id=":3439498563_11" function="internal">
        <lane id=":3439498563_11_0" index="0" disallow="tram rail_urban rail rail_electric rail_fast ship" speed="3.65" length="2.34" shape="251.82,419.78 251.58,420.64 250.56,421.66"/>
    </edge>
    <edge id=":3439498563_6" function="internal">
        <lane id=":3439498563_6_0" index="0" disallow="tram rail_urban rail rail_electric rail_fast ship" speed="6.11" length="9.06" shape="256.35,426.47 256.01,423.93 254.93,422.29 253.11,421.53 250.56,421.66"/>
    </edge>
    <edge id=":3439498563_7" function="internal">
        <lane id=":3439498563_7_0" index="0" disallow="tram rail_urban rail rail_electric rail_fast ship" speed="9.21" length="14.47" shape="256.35,426.47 256.83,422.35 258.20,419.09 260.44,416.67 263.56,415.11"/>
    </edge>
    <edge id=":3439498563_8" function="internal">